Version 4.1
SHEET 1 1100 680
WIRE 16 -256 -32 -256
WIRE -160 -240 -560 -240
WIRE -32 -240 -80 -240
WIRE -32 -224 -32 -240
WIRE 32 -224 -32 -224
WIRE -560 -192 -560 -240
WIRE 32 -192 32 -224
WIRE 752 -160 704 -160
WIRE 752 -128 752 -160
WIRE 32 -32 32 -112
WIRE -560 0 -560 -112
WIRE 752 0 752 -48
WIRE 32 128 32 48
WIRE 128 128 32 128
WIRE 128 144 128 128
WIRE 416 144 208 144
WIRE 416 288 416 144
FLAG 416 288 0
FLAG 752 0 0
FLAG 704 -160 VGS
FLAG 16 -256 VGS
FLAG -560 0 0
SYMBOL voltage 32 -48 R0
WINDOW 123 0 0 Left 0
WINDOW 39 0 0 Left 0
SYMATTR InstName V1
SYMATTR Value 3.925
SYMBOL res 16 -208 R0
SYMATTR InstName R1
SYMATTR Value 5m
SYMBOL voltage 752 -144 R0
WINDOW 123 0 0 Left 0
WINDOW 39 0 0 Left 0
SYMATTR InstName V2
SYMATTR Value PULSE(0 3.3 1 10n 10n 1 2)
SYMBOL voltage -560 -208 R0
WINDOW 123 0 0 Left 0
WINDOW 39 0 0 Left 0
SYMATTR InstName V3
SYMATTR Value 4.2
SYMBOL res 224 128 R90
WINDOW 0 0 56 VBottom 2
WINDOW 3 32 56 VTop 2
SYMATTR InstName R2
SYMATTR Value 10m
SYMBOL sw -176 -240 R270
SYMATTR InstName S1
TEXT -592 312 Left 2 !.tran 5 uic
